LTspice 24.0.12 for Windows
Circuit: * C:\Users\Ernesto\Desktop\Ingeniería Electrónica\9- Noveno Semestre\Electrónica Analógica III\1- Trabajos Prácticos\Trabajo Práctico 1 - Acoplamientos Interetapas en Circuitos Sintonizados\Archivos de la Simulación\TP1 - Simulación.asc
Start Time: Mon Apr  6 00:51:41 2026
solver = Normal
Maximum thread count: 12
tnom = 27
temp = 27
method = modified trap
.OP point found by inspection.
Total elapsed time: 0.152 seconds.

