LTspice 24.0.12 for Windows
Circuit: * C:\Users\Ernesto\Desktop\Ingeniería Electrónica\9- Noveno Semestre\Electrónica Analógica III\1- Trabajos Prácticos\Trabajo Práctico 1 - Acoplamientos Interetapas en Circuitos Sintonizados\Archivos de la Simulación\TP1 - Acoplamiento PI.asc
Start Time: Tue Apr  7 00:07:21 2026
solver = Normal
Maximum thread count: 12
tnom = 27
temp = 27
method = modified trap
.OP point found by inspection.
Total elapsed time: 0.071 seconds.

